Version 4
SHEET 1 2432 776
WIRE 560 -224 464 -224
WIRE 768 -224 624 -224
WIRE 464 -128 464 -224
WIRE 464 -128 336 -128
WIRE 560 -128 464 -128
WIRE 768 -128 768 -224
WIRE 768 -128 640 -128
WIRE 128 -96 64 -96
WIRE 256 -96 208 -96
WIRE 336 -96 336 -128
WIRE 336 16 336 -16
WIRE 464 80 464 -128
WIRE 512 80 464 80
WIRE -400 112 -496 112
WIRE -96 112 -320 112
WIRE 64 112 64 -96
WIRE 64 112 -16 112
WIRE 96 112 64 112
WIRE 768 112 768 -128
WIRE 768 112 656 112
WIRE 832 112 768 112
WIRE 960 112 912 112
WIRE 1344 112 960 112
WIRE 1456 112 1456 64
WIRE 1456 112 1408 112
WIRE -496 128 -496 112
WIRE 256 144 256 -96
WIRE 256 144 240 144
WIRE 512 144 256 144
WIRE 1344 144 1264 144
WIRE 1424 144 1408 144
WIRE 960 160 960 112
WIRE 96 176 16 176
WIRE 1536 176 1408 176
WIRE 1760 176 1536 176
WIRE 16 224 16 176
WIRE 1536 256 1536 176
WIRE 1184 288 1184 272
WIRE 1264 288 1264 144
WIRE 1264 288 1184 288
WIRE 1328 288 1264 288
WIRE 960 304 960 240
WIRE 1184 320 1184 288
WIRE 1328 320 1328 288
WIRE 960 416 960 368
WIRE 1040 416 960 416
WIRE 1040 432 1040 416
WIRE 1536 432 1536 336
WIRE 1536 432 1280 432
WIRE 1040 544 1040 512
WIRE 1280 544 1280 432
WIRE 1280 544 1040 544
WIRE 1328 544 1280 544
WIRE 1440 544 1440 512
WIRE 1440 544 1392 544
WIRE 1040 576 1040 544
WIRE 1232 576 1136 576
WIRE 1328 576 1232 576
WIRE 1408 576 1392 576
WIRE 1440 608 1392 608
WIRE 1136 624 1136 576
WIRE 1232 640 1232 576
WIRE 960 752 960 416
WIRE 1136 752 1136 704
WIRE 1136 752 960 752
WIRE 1440 752 1440 608
WIRE 1440 752 1136 752
FLAG -384 -32 0
FLAG -224 -32 0
FLAG -496 208 0
FLAG 16 224 0
FLAG 336 16 0
FLAG 1328 384 0
FLAG 1456 64 +3.3V
FLAG 1440 512 +3.3V
FLAG 1184 192 +3.3V
FLAG 1424 144 0
FLAG 1408 576 0
FLAG 1040 656 0
FLAG 1184 400 0
FLAG 1232 704 0
FLAG 544 32 +3.3V
FLAG 128 64 +3.3V
FLAG -384 -112 +3.3V
FLAG -224 -112 -3.3V
FLAG 128 224 -3.3V
FLAG 544 192 -3.3V
SYMBOL OpAmps\\LTC6228 128 144 R0
SYMATTR InstName U1
SYMBOL voltage -224 -128 R0
WINDOW 123 0 0 Left 0
WINDOW 39 0 0 Left 0
SYMATTR InstName V1
SYMATTR Value -3.3V
SYMBOL voltage -384 -128 R0
WINDOW 123 0 0 Left 0
WINDOW 39 0 0 Left 0
SYMATTR InstName V2
SYMATTR Value +3.3V
SYMBOL res 224 -112 R90
WINDOW 0 0 56 VBottom 2
WINDOW 3 32 56 VTop 2
SYMATTR InstName R2
SYMATTR Value 510
SYMBOL voltage -496 112 R0
WINDOW 3 23 154 Left 2
WINDOW 123 0 0 Left 0
WINDOW 39 24 124 Left 2
SYMATTR Value PULSE(0 -0.1 2ns 0 0 5ns 50ns)
SYMATTR SpiceLine Rser=0
SYMATTR InstName V3
SYMBOL res 0 96 R90
WINDOW 0 0 56 VBottom 2
WINDOW 3 32 56 VTop 2
SYMATTR InstName R1
SYMATTR Value 100
SYMBOL OpAmps\\LTC6228 544 112 R0
SYMATTR InstName U2
SYMBOL res 656 -144 R90
WINDOW 0 0 56 VBottom 2
WINDOW 3 32 56 VTop 2
SYMATTR InstName R3
SYMATTR Value 33
SYMBOL res 320 -112 R0
SYMATTR InstName R5
SYMATTR Value 22
SYMBOL cap 624 -240 R90
WINDOW 0 0 32 VBottom 2
WINDOW 3 32 32 VTop 2
SYMATTR InstName C2
SYMATTR Value 330pF
SYMBOL res -304 96 R90
WINDOW 0 0 56 VBottom 2
WINDOW 3 32 56 VTop 2
SYMATTR InstName R7
SYMATTR Value 50
SYMBOL res 976 256 R180
WINDOW 0 36 76 Left 2
WINDOW 3 36 40 Left 2
SYMATTR InstName R8
SYMATTR Value 1K
SYMBOL schottky 976 368 R180
WINDOW 0 24 64 Left 2
WINDOW 3 24 0 Left 2
SYMATTR InstName D1
SYMATTR Value RB751SM-40
SYMATTR Description Diode
SYMATTR Type diode
SYMBOL res 1168 176 R0
SYMATTR InstName R9
SYMATTR Value 15K
SYMBOL res 1168 304 R0
SYMATTR InstName R10
SYMATTR Value 150
SYMBOL cap 1312 320 R0
SYMATTR InstName C1
SYMATTR Value 1nF
SYMBOL AutoGenerated\\ADCMP601 1376 144 R0
SYMATTR InstName U3
SYMBOL AutoGenerated\\ADCMP601 1360 576 R0
SYMATTR InstName U4
SYMBOL res 1520 240 R0
SYMATTR InstName R11
SYMATTR Value 6.8K
SYMBOL res 1024 560 R0
SYMATTR InstName R12
SYMATTR Value 2.2K
SYMBOL res 1024 416 R0
SYMATTR InstName R13
SYMATTR Value 22K
SYMBOL cap 1216 640 R0
SYMATTR InstName C3
SYMATTR Value 33pF
SYMBOL res 1120 608 R0
SYMATTR InstName R14
SYMATTR Value 1K
SYMBOL res 928 96 R90
WINDOW 0 0 56 VBottom 2
WINDOW 3 32 56 VTop 2
SYMATTR InstName R4
SYMATTR Value 51
TEXT -160 584 Left 2 !.tran 200ns
